C4H8
APtclcactv12302411413D 0   0.00000     0.00000
 
 12 12  0  0  0  0  0  0  0  0999 V2000
    1.5653   -0.0000   -0.1851 C   0  0  0  0  0  0  0  0  0  0  0  0
    0.2091    0.0000    0.5231 C   0  0  0  0  0  0  0  0  0  0  0  0
   -0.9360    0.7650   -0.1436 C   0  0  0  0  0  0  0  0  0  0  0  0
   -0.9360   -0.7650   -0.1435 C   0  0  0  0  0  0  0  0  0  0  0  0
    1.9232    1.0247   -0.2848 H   0  0  0  0  0  0  0  0  0  0  0  0
    2.2803   -0.5793    0.3992 H   0  0  0  0  0  0  0  0  0  0  0  0
    1.4588   -0.4455   -1.1741 H   0  0  0  0  0  0  0  0  0  0  0  0
    0.2476    0.0004    1.6124 H   0  0  0  0  0  0  0  0  0  0  0  0
   -1.6511    1.2683    0.5071 H   0  0  0  0  0  0  0  0  0  0  0  0
   -0.7231    1.2682   -1.0868 H   0  0  0  0  0  0  0  0  0  0  0  0
   -0.7231   -1.2683   -1.0866 H   0  0  0  0  0  0  0  0  0  0  0  0
   -1.6511   -1.2683    0.5072 H   0  0  0  0  0  0  0  0  0  0  0  0
  1  2  1  0  0  0  0
  2  3  1  0  0  0  0
  3  4  1  0  0  0  0
  2  4  1  0  0  0  0
  1  5  1  0  0  0  0
  1  6  1  0  0  0  0
  1  7  1  0  0  0  0
  2  8  1  0  0  0  0
  3  9  1  0  0  0  0
  3 10  1  0  0  0  0
  4 11  1  0  0  0  0
  4 12  1  0  0  0  0
M  END
$$$$

